src/tests/data/grids/ucte/id_duplication_test.uct
##C 2007.05.01
Generated by powsybl, 2019.09.23 17:47
Case date: 2019.09.24 19:30
##N
##ZFR
FNODE 11 FR_Node_1_1  0 2 400.00 50.0000 0.00000 0.00000 0.00000                                                               F
FNODE 12 FR_Node_1_2  0 2 400.00 0.00000 0.00000 0.00000 0.00000                                                               F
##L
FNODE 11 FNODE 12 1 0 0.0000 0.0500 0.000000   5000 Line
##T
FNODE 11 FNODE 12 1 0 400.0 400.0 5000. 0.5500 1.6800 13.25000 0.0000   5000 2WT
##R
